Version 4
SHEET 1 880 680
WIRE 320 -224 192 -224
WIRE 320 -192 320 -224
WIRE -16 -112 -288 -112
WIRE 112 -112 -16 -112
WIRE 192 -112 192 -224
WIRE 192 -112 112 -112
WIRE -16 -64 -16 -112
WIRE -16 -64 -32 -64
WIRE 0 -64 -16 -64
WIRE 112 -64 112 -112
WIRE 192 -64 192 -112
WIRE 320 -64 320 -128
WIRE -288 64 -288 -112
WIRE -16 80 -16 16
WIRE 16 80 -16 80
WIRE 128 80 80 80
WIRE 224 80 160 80
WIRE 320 80 320 16
WIRE 320 80 288 80
WIRE 112 112 112 16
WIRE 112 112 96 112
WIRE 160 112 160 80
WIRE 160 112 112 112
WIRE -16 144 -16 80
WIRE 320 144 320 80
WIRE 96 192 96 112
WIRE 96 192 48 192
WIRE 128 192 128 80
WIRE 192 192 192 16
WIRE 192 192 128 192
WIRE 256 192 192 192
WIRE -288 288 -288 144
WIRE -16 288 -16 240
WIRE 320 288 320 240
FLAG -16 288 0
FLAG 320 288 0
FLAG -288 288 0
SYMBOL npn 256 144 R0
SYMATTR InstName Q1
SYMATTR Value BC547C
SYMBOL npn 48 144 M0
SYMATTR InstName Q2
SYMATTR Value BC547C
SYMBOL voltage -288 48 R0
WINDOW 123 0 0 Left 2
WINDOW 39 0 0 Left 2
SYMATTR InstName V1
SYMATTR Value 4.8
SYMBOL cap 80 64 R90
WINDOW 0 0 32 VBottom 2
WINDOW 3 32 32 VTop 2
SYMATTR InstName C1
SYMATTR Value 10µ
SYMBOL cap 288 64 R90
WINDOW 0 0 32 VBottom 2
WINDOW 3 32 32 VTop 2
SYMATTR InstName C2
SYMATTR Value 1µ
SYMBOL res -32 -80 R0
SYMATTR InstName R1
SYMATTR Value 4700
SYMBOL res 96 -80 R0
SYMATTR InstName R2
SYMATTR Value 100k
SYMBOL res 176 -80 R0
SYMATTR InstName R3
SYMATTR Value 200k
SYMBOL res 304 -80 R0
SYMATTR InstName R4
SYMATTR Value 470
SYMBOL LED 304 -192 R0
SYMATTR InstName D1
SYMATTR Value NSSWS108T
TEXT -322 312 Left 2 !.tran 0 5 0 0.00001
